*Heading
** Job name: myJob Model name: myModel
** Generated by: Abaqus/CAE 6.10-1
*Preprint, echo=NO, model=NO, history=NO, contact=NO
**
** PARTS
**
*Part, name=Part-1
*Node
      1,          15.,           0.,          20.
      2,         13.5,           0.,          20.
      3,          12.,           0.,          20.
      4,         10.5,           0.,          20.
      5,           9.,           0.,          20.
      6,          7.5,           0.,          20.
      7,           6.,           0.,          20.
      8,          4.5,           0.,          20.
      9,           3.,           0.,          20.
     10,          1.5,           0.,          20.
     11,           0.,           0.,          20.
     12,          15.,           0.,   18.4615383
     13,         13.5,           0.,   18.4615383
     14,          12.,           0.,   18.4615383
     15,         10.5,           0.,   18.4615383
     16,           9.,           0.,   18.4615383
     17,          7.5,           0.,   18.4615383
     18,           6.,           0.,   18.4615383
     19,          4.5,           0.,   18.4615383
     20,           3.,           0.,   18.4615383
** ... 1674 like lines cut
*Element, type=C3D8R
   1,  155,  156,  167,  166,    1,    2,   13,   12
   2,  156,  157,  168,  167,    2,    3,   14,   13
   3,  157,  158,  169,  168,    3,    4,   15,   14
   4,  158,  159,  170,  169,    4,    5,   16,   15
   5,  159,  160,  171,  170,    5,    6,   17,   16
   6,  160,  161,  172,  171,    6,    7,   18,   17
   7,  161,  162,  173,  172,    7,    8,   19,   18
   8,  162,  163,  174,  173,    8,    9,   20,   19
   9,  163,  164,  175,  174,    9,   10,   21,   20
  10,  164,  165,  176,  175,   10,   11,   22,   21
  11,  166,  167,  178,  177,   12,   13,   24,   23
  12,  167,  168,  179,  178,   13,   14,   25,   24
  13,  168,  169,  180,  179,   14,   15,   26,   25
  14,  169,  170,  181,  180,   15,   16,   27,   26
  15,  170,  171,  182,  181,   16,   17,   28,   27
  16,  171,  172,  183,  182,   17,   18,   29,   28
  17,  172,  173,  184,  183,   18,   19,   30,   29
  18,  173,  174,  185,  184,   19,   20,   31,   30
  19,  174,  175,  186,  185,   20,   21,   32,   31
  20,  175,  176,  187,  186,   21,   22,   33,   32
** ... 1280 like lines cut
*Nset, nset=_PickedSet2, internal, generate
    1,  1694,     1
*Elset, elset=_PickedSet2, internal, generate
    1,  1300,     1
** Section: Section-Steel
*Solid Section, elset=_PickedSet2, material=Steel
,
*End Part
**  
*Part, name=Part-2
*Node
      1,           5.,          15.,           0.
      2,   6.42857122,          15.,           0.
      3,   7.85714293,          15.,           0.
      4,   9.28571415,          15.,           0.
      5,   10.7142859,          15.,           0.
      6,   12.1428576,          15.,           0.
      7,   13.5714283,          15.,           0.
      8,          15.,          15.,           0.
      9,           5.,         13.5,           0.
     10,   6.42857122,         13.5,           0.
     11,   7.85714293,         13.5,           0.
     12,   9.28571415,         13.5,           0.
     13,   10.7142859,         13.5,           0.
     14,   12.1428576,         13.5,           0.
     15,   13.5714283,         13.5,           0.
     16,          15.,         13.5,           0.
     17,           5.,          12.,           0.
     18,   6.42857122,          12.,           0.
     19,   7.85714293,          12.,           0.
     20,   9.28571415,          12.,           0.
** ... 948 like lines cut
*Element, type=C3D8R
  1,   9,  10,   2,   1,  97,  98,  90,  89
  2,  10,  11,   3,   2,  98,  99,  91,  90
  3,  11,  12,   4,   3,  99, 100,  92,  91
  4,  12,  13,   5,   4, 100, 101,  93,  92
  5,  13,  14,   6,   5, 101, 102,  94,  93
  6,  14,  15,   7,   6, 102, 103,  95,  94
  7,  15,  16,   8,   7, 103, 104,  96,  95
  8,  17,  18,  10,   9, 105, 106,  98,  97
  9,  18,  19,  11,  10, 106, 107,  99,  98
 10,  19,  20,  12,  11, 107, 108, 100,  99
 11,  20,  21,  13,  12, 108, 109, 101, 100
 12,  21,  22,  14,  13, 109, 110, 102, 101
 13,  22,  23,  15,  14, 110, 111, 103, 102
 14,  23,  24,  16,  15, 111, 112, 104, 103
 15,  25,  26,  18,  17, 113, 114, 106, 105
 16,  26,  27,  19,  18, 114, 115, 107, 106
 17,  27,  28,  20,  19, 115, 116, 108, 107
 18,  28,  29,  21,  20, 116, 117, 109, 108
 19,  29,  30,  22,  21, 117, 118, 110, 109
 20,  30,  31,  23,  22, 118, 119, 111, 110
** ... 680 like lines cut
*Nset, nset=_PickedSet2, internal, generate
   1,  968,    1
*Elset, elset=_PickedSet2, internal, generate
   1,  700,    1
** Section: Section-Steel
*Solid Section, elset=_PickedSet2, material=Steel
,
*End Part
**  
**
** ASSEMBLY
**
*Assembly, name=Assembly
**  
*Instance, name=Part-1-1, part=Part-1
          0.,          15.,           0.
*End Instance
**  
*Instance, name=Part-1-2, part=Part-1
          0.,         -15.,           0.
*End Instance
**  
*Instance, name=Part-2-1, part=Part-2
*End Instance
**  
*Nset, nset=setX, instance=Part-1-1, generate
   11,  1694,    11
*Nset, nset=setX, instance=Part-1-2, generate
   11,  1694,    11
*Nset, nset=setX, instance=Part-2-1, generate
 881,  968,    1
*Elset, elset=setX, instance=Part-1-1, generate
   10,  1300,    10
*Elset, elset=setX, instance=Part-1-2, generate
   10,  1300,    10
*Elset, elset=setX, instance=Part-2-1, generate
 631,  700,    1
*Nset, nset=setZ, instance=Part-1-1
  144,  145,  146,  147,  148,  149,  150,  151,  152,  153,  154,  298,  299,  300,  301,  302
  303,  304,  305,  306,  307,  308,  452,  453,  454,  455,  456,  457,  458,  459,  460,  461
  462,  606,  607,  608,  609,  610,  611,  612,  613,  614,  615,  616,  760,  761,  762,  763
  764,  765,  766,  767,  768,  769,  770,  914,  915,  916,  917,  918,  919,  920,  921,  922
  923,  924, 1068, 1069, 1070, 1071, 1072, 1073, 1074, 1075, 1076, 1077, 1078, 1222, 1223, 1224
 1225, 1226, 1227, 1228, 1229, 1230, 1231, 1232, 1376, 1377, 1378, 1379, 1380, 1381, 1382, 1383
 1384, 1385, 1386, 1530, 1531, 1532, 1533, 1534, 1535, 1536, 1537, 1538, 1539, 1540, 1684, 1685
 1686, 1687, 1688, 1689, 1690, 1691, 1692, 1693, 1694
*Nset, nset=setZ, instance=Part-1-2
  144,  145,  146,  147,  148,  149,  150,  151,  152,  153,  154,  298,  299,  300,  301,  302
  303,  304,  305,  306,  307,  308,  452,  453,  454,  455,  456,  457,  458,  459,  460,  461
  462,  606,  607,  608,  609,  610,  611,  612,  613,  614,  615,  616,  760,  761,  762,  763
  764,  765,  766,  767,  768,  769,  770,  914,  915,  916,  917,  918,  919,  920,  921,  922
  923,  924, 1068, 1069, 1070, 1071, 1072, 1073, 1074, 1075, 1076, 1077, 1078, 1222, 1223, 1224
 1225, 1226, 1227, 1228, 1229, 1230, 1231, 1232, 1376, 1377, 1378, 1379, 1380, 1381, 1382, 1383
 1384, 1385, 1386, 1530, 1531, 1532, 1533, 1534, 1535, 1536, 1537, 1538, 1539, 1540, 1684, 1685
 1686, 1687, 1688, 1689, 1690, 1691, 1692, 1693, 1694
*Nset, nset=setZ, instance=Part-2-1, generate
  1,  88,   1
*Elset, elset=setZ, instance=Part-1-1
  121,  122,  123,  124,  125,  126,  127,  128,  129,  130,  251,  252,  253,  254,  255,  256
  257,  258,  259,  260,  381,  382,  383,  384,  385,  386,  387,  388,  389,  390,  511,  512
  513,  514,  515,  516,  517,  518,  519,  520,  641,  642,  643,  644,  645,  646,  647,  648
  649,  650,  771,  772,  773,  774,  775,  776,  777,  778,  779,  780,  901,  902,  903,  904
  905,  906,  907,  908,  909,  910, 1031, 1032, 1033, 1034, 1035, 1036, 1037, 1038, 1039, 1040
 1161, 1162, 1163, 1164, 1165, 1166, 1167, 1168, 1169, 1170, 1291, 1292, 1293, 1294, 1295, 1296
 1297, 1298, 1299, 1300
*Elset, elset=setZ, instance=Part-1-2
  121,  122,  123,  124,  125,  126,  127,  128,  129,  130,  251,  252,  253,  254,  255,  256
  257,  258,  259,  260,  381,  382,  383,  384,  385,  386,  387,  388,  389,  390,  511,  512
  513,  514,  515,  516,  517,  518,  519,  520,  641,  642,  643,  644,  645,  646,  647,  648
  649,  650,  771,  772,  773,  774,  775,  776,  777,  778,  779,  780,  901,  902,  903,  904
  905,  906,  907,  908,  909,  910, 1031, 1032, 1033, 1034, 1035, 1036, 1037, 1038, 1039, 1040
 1161, 1162, 1163, 1164, 1165, 1166, 1167, 1168, 1169, 1170, 1291, 1292, 1293, 1294, 1295, 1296
 1297, 1298, 1299, 1300
*Elset, elset=setZ, instance=Part-2-1, generate
  1,  70,   1
*Nset, nset=_PickedSet10, internal, instance=Part-1-1, generate
   11,  1694,    11
*Nset, nset=_PickedSet10, internal, instance=Part-1-2, generate
   11,  1694,    11
*Nset, nset=_PickedSet10, internal, instance=Part-2-1, generate
 881,  968,    1
*Elset, elset=_PickedSet10, internal, instance=Part-1-1, generate
   10,  1300,    10
*Elset, elset=_PickedSet10, internal, instance=Part-1-2, generate
   10,  1300,    10
*Elset, elset=_PickedSet10, internal, instance=Part-2-1, generate
 631,  700,    1
*Nset, nset=_PickedSet11, internal, instance=Part-1-1
  144,  145,  146,  147,  148,  149,  150,  151,  152,  153,  154,  298,  299,  300,  301,  302
  303,  304,  305,  306,  307,  308,  452,  453,  454,  455,  456,  457,  458,  459,  460,  461
  462,  606,  607,  608,  609,  610,  611,  612,  613,  614,  615,  616,  760,  761,  762,  763
  764,  765,  766,  767,  768,  769,  770,  914,  915,  916,  917,  918,  919,  920,  921,  922
  923,  924, 1068, 1069, 1070, 1071, 1072, 1073, 1074, 1075, 1076, 1077, 1078, 1222, 1223, 1224
 1225, 1226, 1227, 1228, 1229, 1230, 1231, 1232, 1376, 1377, 1378, 1379, 1380, 1381, 1382, 1383
 1384, 1385, 1386, 1530, 1531, 1532, 1533, 1534, 1535, 1536, 1537, 1538, 1539, 1540, 1684, 1685
 1686, 1687, 1688, 1689, 1690, 1691, 1692, 1693, 1694
*Nset, nset=_PickedSet11, internal, instance=Part-1-2
  144,  145,  146,  147,  148,  149,  150,  151,  152,  153,  154,  298,  299,  300,  301,  302
  303,  304,  305,  306,  307,  308,  452,  453,  454,  455,  456,  457,  458,  459,  460,  461
  462,  606,  607,  608,  609,  610,  611,  612,  613,  614,  615,  616,  760,  761,  762,  763
  764,  765,  766,  767,  768,  769,  770,  914,  915,  916,  917,  918,  919,  920,  921,  922
  923,  924, 1068, 1069, 1070, 1071, 1072, 1073, 1074, 1075, 1076, 1077, 1078, 1222, 1223, 1224
 1225, 1226, 1227, 1228, 1229, 1230, 1231, 1232, 1376, 1377, 1378, 1379, 1380, 1381, 1382, 1383
 1384, 1385, 1386, 1530, 1531, 1532, 1533, 1534, 1535, 1536, 1537, 1538, 1539, 1540, 1684, 1685
 1686, 1687, 1688, 1689, 1690, 1691, 1692, 1693, 1694
*Nset, nset=_PickedSet11, internal, instance=Part-2-1, generate
  1,  88,   1
*Elset, elset=_PickedSet11, internal, instance=Part-1-1
  121,  122,  123,  124,  125,  126,  127,  128,  129,  130,  251,  252,  253,  254,  255,  256
  257,  258,  259,  260,  381,  382,  383,  384,  385,  386,  387,  388,  389,  390,  511,  512
  513,  514,  515,  516,  517,  518,  519,  520,  641,  642,  643,  644,  645,  646,  647,  648
  649,  650,  771,  772,  773,  774,  775,  776,  777,  778,  779,  780,  901,  902,  903,  904
  905,  906,  907,  908,  909,  910, 1031, 1032, 1033, 1034, 1035, 1036, 1037, 1038, 1039, 1040
 1161, 1162, 1163, 1164, 1165, 1166, 1167, 1168, 1169, 1170, 1291, 1292, 1293, 1294, 1295, 1296
 1297, 1298, 1299, 1300
*Elset, elset=_PickedSet11, internal, instance=Part-1-2
  121,  122,  123,  124,  125,  126,  127,  128,  129,  130,  251,  252,  253,  254,  255,  256
  257,  258,  259,  260,  381,  382,  383,  384,  385,  386,  387,  388,  389,  390,  511,  512
  513,  514,  515,  516,  517,  518,  519,  520,  641,  642,  643,  644,  645,  646,  647,  648
  649,  650,  771,  772,  773,  774,  775,  776,  777,  778,  779,  780,  901,  902,  903,  904
  905,  906,  907,  908,  909,  910, 1031, 1032, 1033, 1034, 1035, 1036, 1037, 1038, 1039, 1040
 1161, 1162, 1163, 1164, 1165, 1166, 1167, 1168, 1169, 1170, 1291, 1292, 1293, 1294, 1295, 1296
 1297, 1298, 1299, 1300
*Elset, elset=_PickedSet11, internal, instance=Part-2-1, generate
  1,  70,   1
*Nset, nset=_PickedSet12, internal, instance=Part-1-2, generate
   1,  154,    1
*Elset, elset=_PickedSet12, internal, instance=Part-1-2, generate
   1,  130,    1
*Elset, elset=_surfaceX_S4, internal, instance=Part-1-1, generate
   10,  1300,    10
*Elset, elset=_surfaceX_S4, internal, instance=Part-1-2, generate
   10,  1300,    10
*Elset, elset=_surfaceX_S2, internal, instance=Part-2-1, generate
 631,  700,    1
*Surface, type=ELEMENT, name=surfaceX
_surfaceX_S4, S4
_surfaceX_S2, S2
*Elset, elset=__PickedSurf13_S1, internal, instance=Part-1-1, generate
 1171,  1300,     1
*Surface, type=ELEMENT, name=_PickedSurf13, internal
__PickedSurf13_S1, S1
*Elset, elset=__Int-1_gcs0_13_S4, internal, instance=Part-2-1, generate
   7,  700,    7
*Surface, type=ELEMENT, name=_Int-1_gcs0_13, internal
__Int-1_gcs0_13_S4, S4
*Elset, elset=__Int-1_gcs0_15_S6, internal, instance=Part-2-1, generate
   1,  694,    7
*Surface, type=ELEMENT, name=_Int-1_gcs0_15, internal
__Int-1_gcs0_15_S6, S6
*End Assembly
** 
** MATERIALS
** 
*Material, name=Steel
*Density
 7.8e-09,
*Elastic
210000., 0.28
*Expansion
 1e-05,
*Plastic
450.,   0.
480., 0.05
490., 0.15
500.,  0.3
** 
** INTERACTION PROPERTIES
** 
*Surface Interaction, name=IntProp-1
1.,
*Friction
0.,
** 
** BOUNDARY CONDITIONS
** 
** Name: BC-X Type: Symmetry/Antisymmetry/Encastre
*Boundary
_PickedSet10, XSYMM
** Name: BC-YFix Type: Displacement/Rotation
*Boundary
_PickedSet12, 2, 2
** Name: BC-Z Type: Symmetry/Antisymmetry/Encastre
*Boundary
_PickedSet11, ZSYMM
** 
** INTERACTIONS
** 
** Interaction: Int-1
*Contact
*Contact Inclusions, ALL EXTERIOR
*Contact Property Assignment
 ,  , IntProp-1
*Surface Property Assignment, property=GEOMETRIC CORRECTION
_Int-1_gcs0_13, Circumferential, 0., 7.5, 0.,  0., 6.5, 0.
_Int-1_gcs0_15, Circumferential, 0., 7.5, 0.,  0., 6.5, 0.
** ----------------------------------------------------------------
** 
** STEP: myStep1
** 
*Step, name=myStep1, nlgeom=YES, inc=1000
*Static
0.1, 1., 0.001, 0.3
** 
** LOADS
** 
** Name: Pressure   Type: Pressure
*Dsload
_PickedSurf13, P, 10.
** 
** OUTPUT REQUESTS
** 
*Restart, write, frequency=0
** 
** FIELD OUTPUT: F-Output-1
** 
*Output, field, number interval=10
*Node Output
U, 
*Element Output, directions=YES
S, 
** 
** HISTORY OUTPUT: H-Output-1
** 
*Output, history, variable=PRESELECT
*End Step
