*Heading
** Generated by: Abaqus/CAE 6.10-1
*Preprint, echo=NO, model=NO, history=NO, contact=NO
**
** PARTS
**
*Part, name=wire
*Node
      1,           0.,  0.109809168
      2, 0.00285961363,  0.109809168
      3, 0.00571922725,  0.109809168
      4, 0.00857884064,  0.109809168
      5, 0.0114384545,  0.109809168
      6, 0.0142980684,  0.109809168
      7, 0.0171576813,  0.109809168
      8, 0.0200172961,  0.109809168
      9,  0.022876909,  0.109809168
     10, 0.0257365238,  0.109809168
     11, 0.0285961367,  0.109809168
     12, 0.0314557515,  0.109809168
     13, 0.0343153626,  0.109809168
     14, 0.0371749774,  0.109809168
     15, 0.0400345922,  0.109809168
     16, 0.0428942032,  0.109809168
     17,  0.045753818,  0.109809168
     18,           0.,  0.112668775
     19, 0.00285961363,  0.112668775
     20, 0.00571922725,  0.112668775
** ... 2717 like lines cut
*Element, type=CAX4R
   1,    1,    2,   19,   18
   2,    2,    3,   20,   19
   3,    3,    4,   21,   20
   4,    4,    5,   22,   21
   5,    5,    6,   23,   22
   6,    6,    7,   24,   23
   7,    7,    8,   25,   24
   8,    8,    9,   26,   25
   9,    9,   10,   27,   26
  10,   10,   11,   28,   27
  11,   11,   12,   29,   28
  12,   12,   13,   30,   29
  13,   13,   14,   31,   30
  14,   14,   15,   32,   31
  15,   15,   16,   33,   32
  16,   16,   17,   34,   33
  17,   18,   19,   36,   35
  18,   19,   20,   37,   36
  19,   20,   21,   38,   37
  20,   21,   22,   39,   38
** ... 2540 like lines cut
*Nset, nset=_PickedSet2, internal, generate
    1,  2737,     1
*Elset, elset=_PickedSet2, internal, generate
    1,  2560,     1
** Section: steel
*Solid Section, elset=_PickedSet2, material=steel
,
*End Part
**  
**
** ASSEMBLY
**
*Assembly, name=Assembly
**  
*Instance, name=wire-1, part=wire
*End Instance
**  
*Nset, nset=axi, instance=wire-1, generate
    1,  2721,    17
*Elset, elset=axi, instance=wire-1, generate
    1,  2545,    16
*Nset, nset=wire_fix, instance=wire-1, generate
 2721,  2737,     1
*Elset, elset=wire_fix, instance=wire-1, generate
 2545,  2560,     1
*Nset, nset=wire_move, instance=wire-1, generate
  1,  17,   1
*Elset, elset=wire_move, instance=wire-1, generate
  1,  16,   1
*End Assembly
*Map solution
0.0,12.0,0.0
** 
** MATERIALS
** 
*Material, name=steel
*Density
 7.86e-09,
*Elastic
204323., 0.3
*Plastic
 697.155,     0.
 831.357, 0.0034
 888.665, 0.0068
 932.946, 0.0102
 970.444, 0.0136
 1003.59,  0.017
 1033.63, 0.0204
 1061.32, 0.0238
 1087.14, 0.0272
 1111.44, 0.0306
 1134.44,  0.034
 1156.36, 0.0374
 1177.32, 0.0408
 1197.45, 0.0442
 1216.83, 0.0476
 1235.56,  0.051
 1261.96,    0.2
 1298.76,    0.4
 1339.99,    0.6
 1385.97,    0.8
** ... 16 like lines cut
** 
** BOUNDARY CONDITIONS
** 
** Name: axi Type: Displacement/Rotation
*Boundary
axi, 1, 1
** Name: wire_fix Type: Displacement/Rotation
*Boundary
wire_fix, 2, 2
** ----------------------------------------------------------------
** 
** STEP: tension
** 
*Step, name=tension, nlgeom=YES, inc=1000
*Static
0.000114385, 0.0114385, 1e-10, 0.000114385
** 
** BOUNDARY CONDITIONS
** 
** Name: wire_move Type: Velocity/Angular velocity
*Boundary, type=VELOCITY
wire_move, 2, 2, -2.
** 
** OUTPUT REQUESTS
** 
*Restart, write, frequency=0
** 
** FIELD OUTPUT: F-Output-1
** 
*Output, field, variable=PRESELECT
** 
** HISTORY OUTPUT: H-Output-1
** 
*Output, history, variable=PRESELECT
*End Step
