*Heading
** Job name: HertzContact Model name: Model-1
** Generated by: Abaqus/CAE 6.10-1
*Preprint, echo=NO, model=NO, history=NO, contact=NO
**
** PARTS
**
*Part, name=Ball
*Node
      1,           0.,           0.
      2,           0.,          10.
      3,   1.41507947,  0.100628808
      4,   2.88965797,  0.426605761
      5,   3.97648072,  0.824619889
      6,   5.34533167,   1.54852509
      7,   6.40730095,    2.3223381
      8,   7.54670143,   3.43895602
      9,   8.66981983,   5.01660585
     10,    9.1727438,    6.0174427
     11,   9.59349155,   7.17778015
     12,   9.88771057,    8.5056181
     13,          10.,          10.
     14,           0., 0.0500000007
     15,           0.,  0.108299665
     16,           0.,  0.176276684
     17,           0.,  0.255537421
     18,           0.,  0.347954929
     19,           0.,  0.455713093
     20,           0.,  0.581358373
** ... 243 like lines cut
*Element, type=CAX3
1, 127, 147,  93
2, 183, 161, 166
3, 182, 263, 239
4, 158, 184, 157
*Element, type=CAX4R
  5, 150, 152, 103, 101
  6,  79,  90,  27,  26
  7,  56,  82,  91,   5
  8,  74,  75,  30,  29
  9,  67,  68,  32,  31
 10,  73,  78,  92, 252
 11, 127,  71,  72, 254
 12,  10,  71,  70,   9
 13,  12, 251,  72,  11
 14,  35,  34,  73, 250
 15,  13,  66, 251,  12
 16,  14,   1,  36, 205
 17, 205,  36,  37, 206
 18,  38, 167, 206,  37
 19, 167,  38,  39, 168
 20,  41, 133, 169,  40
 21, 170, 134, 135, 221
 22, 168, 211, 208, 167
 23, 102,  46,  47, 104
 24, 150, 193, 229, 207
** ... 207 like lines cut
*Nset, nset=_PickedSet2, internal, generate
   1,  263,    1
*Elset, elset=_PickedSet2, internal, generate
   1,  231,    1
** Section: steel-section
*Solid Section, elset=_PickedSet2, material=Steel
,
*End Part
**  
*Part, name=Base
*Node
      1,           0.,         -10.
      2,           0.,           0.
      3,          15.,         -10.
      4,          15.,           0.
      5,           0.,         -8.5
      6,           0.,  -7.21903753
      7,           0.,  -6.12512779
      8,           0.,  -5.19095612
      9,           0.,  -4.39319754
     10,           0.,  -3.71193099
     11,           0.,  -3.13014674
     12,           0.,  -2.63331771
     13,           0.,  -2.20903802
     14,           0.,  -1.84671378
     15,           0.,  -1.53729796
     16,           0.,  -1.27306473
     17,           0.,  -1.04741609
     18,           0., -0.854717791
     19,           0., -0.690158308
     20,           0., -0.549628675
** ... 290 like lines cut
*Element, type=CAX3
1, 194, 306, 230
2, 276, 261, 239
3, 277, 276, 226
4, 285, 260, 272
5, 303, 288, 258
6, 287, 260, 288
7, 263, 255, 244
8, 289, 243, 286
*Element, type=CAX4R
  9,  68,  67, 110, 111
 10,   1,  35, 291,   5
 11,   5, 291,  76,   6
 12,  98,  99,  33,  32
 13,  77,   7,   6,  76
 14, 107, 108,  65,  64
 15,  78,   8,   7,  77
 16,  79,   9,   8,  78
 17,  80,  10,   9,  79
 18,  81,  11,  10,  80
 19,  82,  12,  11,  81
 20,  83,  13,  12,  82
 21,  84,  14,  13,  83
 22,  85,  15,  14,  84
 23,  86,  16,  15,  85
 24,  87,  17,  16,  86
 25,  88,  18,  17,  87
 26,  89,  19,  18,  88
 27,  90,  20,  19,  89
 28,  91,  21,  20,  90
** ... 248 like lines cut
*Nset, nset=_PickedSet2, internal, generate
   1,  310,    1
*Elset, elset=_PickedSet2, internal, generate
   1,  276,    1
** Section: steel-section
*Solid Section, elset=_PickedSet2, material=Steel
,
*End Part
**  
**
** ASSEMBLY
**
*Assembly, name=Assembly
**  
*Instance, name=Ball-1, part=Ball
*End Instance
**  
*Instance, name=Base-1, part=Base
*End Instance
**  
*Node
      1,           0.,          10.,           0.
*Nset, nset=_PickedSet8, internal, instance=Base-1
  1,  3, 27, 28, 29, 30, 31, 32, 33, 34, 35
*Elset, elset=_PickedSet8, internal, instance=Base-1
 10, 12, 32, 34, 37, 38, 40, 92, 94, 96
*Nset, nset=_PickedSet9, internal, instance=Ball-1
  1,  2, 14, 15, 16, 17, 18, 19, 20, 21, 22, 23, 24, 25, 26, 27
 28, 29, 30, 31, 32, 33, 34, 35
*Nset, nset=_PickedSet9, internal, instance=Base-1
  1,  2,  5,  6,  7,  8,  9, 10, 11, 12, 13, 14, 15, 16, 17, 18
 19, 20, 21, 22, 23, 24, 25, 26
*Elset, elset=_PickedSet9, internal, instance=Ball-1
   6,   8,   9,  14,  16,  26,  34,  36,  43,  45,  53,  65,  66,  67,  84,  96
  98,  99, 104, 145, 160, 168, 198
*Elset, elset=_PickedSet9, internal, instance=Base-1
 10, 11, 13, 15, 16, 17, 18, 19, 20, 21, 22, 23, 24, 25, 26, 27
 28, 29, 30, 31, 46, 47, 89
*Nset, nset=_PickedSet12, internal
 1,
*Nset, nset=_PickedSet13, internal
 1,
*Elset, elset=__PickedSurf6_S1, internal, instance=Base-1
   9,  41,  43,  46,  57,  68,  69,  70,  72,  77,  81,  83, 105, 112, 125, 135
 149,
*Elset, elset=__PickedSurf6_S3, internal, instance=Base-1
  14,  73,  75,  76,  79,  80,  82,  84,  88,  91, 119, 120, 121, 141, 145, 155
*Elset, elset=__PickedSurf6_S4, internal, instance=Base-1
 74,
*Surface, type=ELEMENT, name=_PickedSurf6, internal
__PickedSurf6_S1, S1
__PickedSurf6_S3, S3
__PickedSurf6_S4, S4
*Elset, elset=__PickedSurf7_S4, internal, instance=Ball-1
  7, 12, 13, 15, 18, 20, 25, 32, 38, 41, 42, 47, 49, 50, 57
*Elset, elset=__PickedSurf7_S2, internal, instance=Ball-1
  16,  17,  19,  23,  27,  37,  39,  44,  59,  60,  68,  69,  70,  73,  75,  82
  83,  90, 100, 128, 161
*Surface, type=ELEMENT, name=_PickedSurf7, internal
__PickedSurf7_S4, S4
__PickedSurf7_S2, S2
*Elset, elset=__PickedSurf11_S1, internal, instance=Ball-1
 15, 62, 81
*Elset, elset=__PickedSurf11_S4, internal, instance=Ball-1
 33, 53, 64
*Elset, elset=__PickedSurf11_S2, internal, instance=Ball-1
 63,
*Surface, type=ELEMENT, name=_PickedSurf11, internal
__PickedSurf11_S1, S1
__PickedSurf11_S4, S4
__PickedSurf11_S2, S2
** Constraint: Constraint-1
*Coupling, constraint name=Constraint-1, ref node=_PickedSet12, surface=_PickedSurf11
*Distributing, weighting method=UNIFORM
*End Assembly
** 
** MATERIALS
** 
*Material, name=Steel
*Density
 7.9e-09,
*Elastic
210000., 0.3
** 
** INTERACTION PROPERTIES
** 
*Surface Interaction, name=IntProp-1
1.,
*Friction
0.,
*Surface Behavior, pressure-overclosure=HARD
*Time Points, name=TimePoints-1
0.05, 0.1, 0.2, 0.4, 0.6, 0.8, 1.
** 
** BOUNDARY CONDITIONS
** 
** Name: BC-1 Type: Displacement/Rotation
*Boundary
_PickedSet8, 2, 2
** Name: BC-2 Type: Symmetry/Antisymmetry/Encastre
*Boundary
_PickedSet9, YASYMM
** 
** INTERACTIONS
** 
** Interaction: Int-1
*Contact Pair, interaction=IntProp-1, type=SURFACE TO SURFACE, adjust=0.0
_PickedSurf7, _PickedSurf6
** ----------------------------------------------------------------
** 
** STEP: Contact
** 
*Step, name=Contact, inc=1000
*Static
0.01, 1., 1e-05, 0.3
** 
** LOADS
** 
** Name: Load-1   Type: Concentrated force
*Cload
_PickedSet13, 2, -300.
** 
** OUTPUT REQUESTS
** 
*Restart, write, frequency=0
** 
** FIELD OUTPUT: F-Output-1
** 
*Output, field, variable=PRESELECT, time points=TimePoints-1, time marks=NO
** 
** HISTORY OUTPUT: H-Output-1
** 
*Output, history, variable=PRESELECT
*End Step
